*Heading
 Experiment 4: PlasticityTest - 100kN vertical load (plasticity)
** Job name: Experiment4_Job3 Model name: Experiment4_TO_Specimen
** Generated by: Abaqus/CAE Learning Edition 2025
*Preprint, echo=NO, model=NO, history=NO, contact=NO
**
** PARTS
**
*Part, name=TO_Specimen
*Node
      1,           5.,   106.169998,          25.
      2,   32.2999992,          28.,          25.
      3,   32.2999992,          28.,           0.
      4,           5.,   106.169998,           0.
      5,   32.2999992,           0.,          25.
      6,   32.2999992,           0.,           0.
      7,   14.3000002,           0.,          25.
      8,   14.3000002,           0.,           0.
      9,   14.3000002,          28.,          25.
     10,   14.3000002,          28.,           0.
     11,           4.,          63.,          25.
     12,           4.,          63.,           0.
     13,          -4.,          63.,          25.
     14,          -4.,          63.,           0.
     15,  -14.3000002,          28.,          25.
     16,  -14.3000002,          28.,           0.
     17,  -14.3000002,           0.,          25.
     18,  -14.3000002,           0.,           0.
     19,  -32.2999992,           0.,          25.
     20,  -32.2999992,           0.,           0.
** ... 549 like lines cut
*Element, type=C3D4
   1, 456, 477, 468, 458
   2, 477, 478, 479, 257
   3, 303, 400, 311, 312
   4, 333, 151, 447,  25
   5, 439, 478, 437, 477
   6, 480, 481, 482, 426
   7, 422, 480, 483, 482
   8, 481, 484, 485, 486
   9, 482, 486, 265, 481
  10, 487, 151, 463, 447
  11, 482, 480, 483, 488
  12, 486, 482, 480, 481
  13, 489, 490, 491, 492
  14, 490, 493, 219, 489
  15, 490, 494, 495, 496
  16, 490, 496, 211, 218
  17, 233, 381,  65, 373
  18, 490, 496, 212, 211
  19, 497, 480, 488, 483
  20, 497, 498, 297, 488
** ... 1755 like lines cut
*Nset, nset=AllCells, generate
   1,  569,    1
*Elset, elset=AllCells, generate
    1,  1775,     1
** Section: IN718_Section
*Solid Section, elset=AllCells, material=IN718
,
*End Part
**  
**
** ASSEMBLY
**
*Assembly, name=Assembly
**  
*Instance, name=TO_Specimen-1, part=TO_Specimen
*End Instance
**  
*Node
      1,           0.,   132.169998,         12.5
*Node
      2,  -23.2999992,          14.,         12.5
*Node
      3,   23.2999992,          14.,         12.5
*Node
      4,           0.,   132.169998,         12.5
*Nset, nset=LowerLeftPinHole, instance=TO_Specimen-1
  31,  32, 173, 174, 175, 176, 177, 178, 179, 180, 181, 182, 183, 184, 185, 186
 335, 336, 337, 338, 339, 340, 341, 342, 343, 344, 345, 346, 347, 348, 349, 350
 351, 352, 353, 354, 355, 356, 357, 358, 359, 360, 361, 362, 363, 364, 365, 366
*Elset, elset=LowerLeftPinHole, instance=TO_Specimen-1
  203,  209,  253,  334,  382,  491,  536,  580,  583,  584,  596,  606,  636,  639,  649,  650
  651,  656,  658,  661,  685,  736,  858,  866,  923,  933, 1009, 1012, 1067, 1070, 1072, 1073
 1085, 1087, 1088, 1091, 1094, 1096, 1099, 1100, 1101, 1105, 1109, 1114, 1115, 1117, 1128, 1133
 1134, 1136, 1143, 1145, 1153, 1154, 1158, 1164, 1165, 1170, 1177, 1178, 1182, 1183, 1185, 1227
 1228, 1270, 1284, 1417, 1458, 1470, 1472, 1476, 1479, 1480, 1495, 1501, 1502, 1523, 1628, 1771
*Nset, nset=LowerRightPinHole, instance=TO_Specimen-1
  33,  34, 187, 188, 189, 190, 191, 192, 193, 194, 195, 196, 197, 198, 199, 200
 367, 368, 369, 370, 371, 372, 373, 374, 375, 376, 377, 378, 379, 380, 381, 382
 383, 384, 385, 386, 387, 388, 389, 390, 391, 392, 393, 394, 395, 396, 397, 398
*Elset, elset=LowerRightPinHole, instance=TO_Specimen-1
   98,  188,  207,  316,  530,  615,  642,  644,  645,  648,  660,  691,  692,  694,  741,  766
  897,  899,  917,  919,  921,  922,  924,  925,  926,  927,  931,  934,  936,  945,  946,  947
  950,  951,  954,  955,  957,  960,  970,  973,  975,  978,  985,  986,  988,  991,  996, 1000
 1001, 1002, 1007, 1011, 1013, 1017, 1036, 1038, 1039, 1045, 1048, 1049, 1051, 1052, 1054, 1055
 1057, 1058, 1060, 1068, 1081, 1086, 1155, 1210, 1214, 1288, 1485, 1562, 1606, 1619, 1759, 1772
*Nset, nset=UpperPinHole, instance=TO_Specimen-1
  29,  30, 159, 160, 161, 162, 163, 164, 165, 166, 167, 168, 169, 170, 171, 172
 303, 304, 305, 306, 307, 308, 309, 310, 311, 312, 313, 314, 315, 316, 317, 318
 319, 320, 321, 322, 323, 324, 325, 326, 327, 328, 329, 330, 331, 332, 333, 334
*Elset, elset=UpperPinHole, instance=TO_Specimen-1
    3,   80,  226,  289,  374,  435,  452,  620,  626,  629,  673,  675,  680,  690,  701,  702
  787,  816,  849,  852,  901,  911,  915, 1102, 1104, 1112, 1130, 1179, 1189, 1191, 1192, 1193
 1194, 1195, 1198, 1201, 1203, 1209, 1212, 1213, 1215, 1217, 1221, 1222, 1226, 1231, 1233, 1238
 1239, 1240, 1242, 1243, 1244, 1249, 1255, 1258, 1259, 1265, 1272, 1274, 1281, 1282, 1283, 1292
 1295, 1296, 1298, 1299, 1301, 1310, 1314, 1317, 1318, 1323, 1326, 1333, 1335, 1341, 1350, 1359
*Nset, nset=UpperRP
 4,
*Elset, elset=_LeftBlockBottom_S3, internal, instance=TO_Specimen-1
  384,  630, 1119, 1156, 1286, 1478, 1482, 1757, 1765
*Elset, elset=_LeftBlockBottom_S4, internal, instance=TO_Specimen-1
 1083, 1187
*Elset, elset=_LeftBlockBottom_S1, internal, instance=TO_Specimen-1
 1601,
*Surface, type=ELEMENT, name=LeftBlockBottom
_LeftBlockBottom_S3, S3
_LeftBlockBottom_S4, S4
_LeftBlockBottom_S1, S1
*Elset, elset=_RightBlockBottom_S3, internal, instance=TO_Specimen-1
  288,  320,  616,  749,  938,  976,  989, 1023, 1205, 1208, 1769
*Elset, elset=_RightBlockBottom_S1, internal, instance=TO_Specimen-1
 1412,
*Surface, type=ELEMENT, name=RightBlockBottom
_RightBlockBottom_S3, S3
_RightBlockBottom_S1, S1
*Elset, elset=_UpperPinSurface_S4, internal, instance=TO_Specimen-1
    3,   80,  226,  629,  680,  701,  915, 1102, 1104, 1212, 1272, 1281, 1282, 1283, 1310, 1326
 1335, 1350
*Elset, elset=_UpperPinSurface_S3, internal, instance=TO_Specimen-1
  289,  374,  435,  452,  620,  626,  673,  675,  702,  787,  849,  852,  911, 1112, 1189, 1191
 1192, 1195, 1198, 1213, 1215, 1217, 1233, 1238, 1239, 1240, 1242, 1243, 1255, 1258, 1259, 1274
 1295, 1296, 1298, 1299, 1301, 1314, 1317, 1318
*Elset, elset=_UpperPinSurface_S2, internal, instance=TO_Specimen-1
  690, 1203, 1209, 1226, 1231, 1249, 1265, 1292
*Elset, elset=_UpperPinSurface_S1, internal, instance=TO_Specimen-1
  816,  901, 1130, 1179, 1193, 1194, 1201, 1221, 1222, 1244, 1323, 1333, 1341, 1359
*Surface, type=ELEMENT, name=UpperPinSurface
_UpperPinSurface_S4, S4
_UpperPinSurface_S3, S3
_UpperPinSurface_S2, S2
_UpperPinSurface_S1, S1
** Constraint: UpperPinCoupling
*Coupling, constraint name=UpperPinCoupling, ref node=UpperRP, surface=UpperPinSurface
*Kinematic
*End Assembly
** 
** MATERIALS
** 
*Material, name=IN718
*Density
 8.19e-09,
*Elastic
198400., 0.3
*Plastic
 980.,     0.
1000.,  5e-05
1050., 0.0005
1100., 0.0015
1150., 0.0035
1191.,  0.006
1250.,  0.012
1300.,   0.02
1350.,   0.03
1400.,  0.045
** 
** BOUNDARY CONDITIONS
** 
** Name: LowerLeftPin_BC Type: Displacement/Rotation
*Boundary
LowerLeftPinHole, 2, 2
LowerLeftPinHole, 3, 3
** Name: LowerRightPin_BC Type: Displacement/Rotation
*Boundary
LowerRightPinHole, 2, 2
LowerRightPinHole, 3, 3
** ----------------------------------------------------------------
** 
** STEP: FatigueTest
** 
*Step, name=FatigueTest, nlgeom=YES
*Static
0.1, 1., 1e-08, 1.
** 
** LOADS
** 
** Name: VerticalLoad_20kN   Type: Concentrated force
*Cload
UpperRP, 2, 20000.
** 
** OUTPUT REQUESTS
** 
*Restart, write, frequency=0
** 
** FIELD OUTPUT: F-Output-1
** 
*Output, field, variable=PRESELECT
** 
** HISTORY OUTPUT: H-Output-1
** 
*Output, history, variable=PRESELECT
*End Step
** ----------------------------------------------------------------
** 
** STEP: TODesign
** 
*Step, name=TODesign, nlgeom=YES
*Static
0.1, 1., 1e-08, 1.
** 
** OUTPUT REQUESTS
** 
*Restart, write, frequency=0
** 
** FIELD OUTPUT: F-Output-1
** 
*Output, field, variable=PRESELECT
** 
** HISTORY OUTPUT: H-Output-1
** 
*Output, history, variable=PRESELECT
*End Step
** ----------------------------------------------------------------
** 
** STEP: PlasticityTest
** 
*Step, name=PlasticityTest, nlgeom=YES, inc=200
*Static
0.05, 1., 1e-10, 0.1
** 
** LOADS
** 
** Name: VerticalLoad_20kN   Type: Concentrated force
*Cload
UpperRP, 2, 100000.
** 
** OUTPUT REQUESTS
** 
*Restart, write, frequency=0
** 
** FIELD OUTPUT: F-Output-1
** 
*Output, field, variable=PRESELECT
** 
** HISTORY OUTPUT: H-Output-1
** 
*Output, history, variable=PRESELECT
*End Step
