*Heading
 Cantilever beam analysis
** Job name: CantileverBeam Model name: CantileverBeam
** Generated by: Abaqus/CAE Learning Edition 2025
*Preprint, echo=NO, model=NO, history=NO, contact=NO
**
** PARTS
**
*Part, name=Beam
*Node
      1,         100.,          10.,          10.
      2,         100.,           5.,          10.
      3,         100.,           0.,          10.
      4,         100.,          10.,           5.
      5,         100.,           5.,           5.
      6,         100.,           0.,           5.
      7,         100.,          10.,           0.
      8,         100.,           5.,           0.
      9,         100.,           0.,           0.
     10,          95.,          10.,          10.
     11,          95.,           5.,          10.
     12,          95.,           0.,          10.
     13,          95.,          10.,           5.
     14,          95.,           5.,           5.
     15,          95.,           0.,           5.
     16,          95.,          10.,           0.
     17,          95.,           5.,           0.
     18,          95.,           0.,           0.
     19,          90.,          10.,          10.
     20,          90.,           5.,          10.
** ... 169 like lines cut
*Element, type=C3D8R
 1,  10,  11,  14,  13,   1,   2,   5,   4
 2,  11,  12,  15,  14,   2,   3,   6,   5
 3,  13,  14,  17,  16,   4,   5,   8,   7
 4,  14,  15,  18,  17,   5,   6,   9,   8
 5,  19,  20,  23,  22,  10,  11,  14,  13
 6,  20,  21,  24,  23,  11,  12,  15,  14
 7,  22,  23,  26,  25,  13,  14,  17,  16
 8,  23,  24,  27,  26,  14,  15,  18,  17
 9,  28,  29,  32,  31,  19,  20,  23,  22
10,  29,  30,  33,  32,  20,  21,  24,  23
11,  31,  32,  35,  34,  22,  23,  26,  25
12,  32,  33,  36,  35,  23,  24,  27,  26
13,  37,  38,  41,  40,  28,  29,  32,  31
14,  38,  39,  42,  41,  29,  30,  33,  32
15,  40,  41,  44,  43,  31,  32,  35,  34
16,  41,  42,  45,  44,  32,  33,  36,  35
17,  46,  47,  50,  49,  37,  38,  41,  40
18,  47,  48,  51,  50,  38,  39,  42,  41
19,  49,  50,  53,  52,  40,  41,  44,  43
20,  50,  51,  54,  53,  41,  42,  45,  44
** ... 60 like lines cut
*Nset, nset=AllCells, generate
   1,  189,    1
*Elset, elset=AllCells, generate
  1,  80,   1
** Section: BeamSection
*Solid Section, elset=AllCells, material=Steel
,
*End Part
**  
**
** ASSEMBLY
**
*Assembly, name=Assembly
**  
*Instance, name=Beam-1, part=Beam
*End Instance
**  
*Nset, nset=FixedEnd, instance=Beam-1, generate
 181,  189,    1
*Elset, elset=FixedEnd, instance=Beam-1, generate
 77,  80,   1
*Elset, elset=_LoadSurface_S2, internal, instance=Beam-1, generate
 1,  4,  1
*Surface, type=ELEMENT, name=LoadSurface
_LoadSurface_S2, S2
*End Assembly
** 
** MATERIALS
** 
*Material, name=Steel
*Density
 7.85e-09,
*Elastic
210000., 0.3
** 
** BOUNDARY CONDITIONS
** 
** Name: FixedSupport Type: Symmetry/Antisymmetry/Encastre
*Boundary
FixedEnd, ENCASTRE
** ----------------------------------------------------------------
** 
** STEP: LoadStep
** 
*Step, name=LoadStep, nlgeom=NO
*Static
0.1, 1., 1e-06, 1.
** 
** LOADS
** 
** Name: AppliedForce   Type: Surface traction
*Dsload
LoadSurface, TRVEC, -10., 0., 1., 0.
** 
** OUTPUT REQUESTS
** 
*Restart, write, frequency=0
** 
** FIELD OUTPUT: F-Output-1
** 
*Output, field
*Node Output, variable=PRESELECT
*Element Output, directions=YES
E, S
** 
** HISTORY OUTPUT: H-Output-1
** 
*Output, history, variable=PRESELECT
*End Step
