*Heading
** Job name: Job_100kN Model name: Experiment4_TO_Specimen
** Generated by: Abaqus/CAE Learning Edition 2025
*Preprint, echo=NO, model=NO, history=NO, contact=NO
**
** PARTS
**
*Part, name=TO_Specimen
*Node
      1,   14.3000002,          14.,   18.8500004
      2,   32.2999992,          14.,   18.8500004
      3,  -32.2999992,          14.,   18.8500004
      4,  -14.3000002,          14.,   18.8500004
      5,           5.,   106.169998,          25.
      6,   32.2999992,          28.,          25.
      7,   32.2999992,          28.,           0.
      8,           5.,   106.169998,           0.
      9,   32.2999992,           0.,          25.
     10,   32.2999992,           0.,           0.
     11,   14.3000002,           0.,          25.
     12,   14.3000002,           0.,           0.
     13,   14.3000002,          28.,          25.
     14,   14.3000002,          28.,           0.
     15,           4.,          63.,          25.
     16,           4.,          63.,           0.
     17,          -4.,          63.,          25.
     18,          -4.,          63.,           0.
     19,  -14.3000002,          28.,          25.
     20,  -14.3000002,          28.,           0.
** ... 833 like lines cut
*Element, type=C3D4
   1, 641, 642, 643, 230
   2, 642, 644, 641, 645
   3, 642, 643, 646, 647
   4, 642, 648, 649, 644
   5, 642, 645, 643, 647
   6, 418, 650, 417, 651
   7, 650, 652, 653, 473
   8, 651, 650, 473, 472
   9, 367,  39, 654,  40
  10, 655, 656, 657, 658
  11, 656, 659, 658, 655
  12, 656, 658, 659, 660
  13, 656, 661, 662, 663
  14, 656, 661, 663, 664
  15,  39, 654,  40, 279
  16, 656, 665, 666, 667
  17, 619, 668, 627, 628
  18, 656, 665, 667, 657
  19, 669, 665, 666, 656
  20, 665, 670, 667, 657
** ... 2920 like lines cut
*Nset, nset=AllCells, generate
   1,  853,    1
*Elset, elset=AllCells, generate
    1,  2940,     1
** Section: SolidSection
*Solid Section, elset=AllCells, material=IN718
,
*End Part
**  
**
** ASSEMBLY
**
*Assembly, name=Assembly
**  
*Instance, name=TO_Specimen-1, part=TO_Specimen
*End Instance
**  
*Node
      1,           0.,   132.169998,         12.5
*Nset, nset=LowerLeftPinHole, instance=TO_Specimen-1
   3,   4,  53,  54,  55,  56,  57,  58,  59,  60,  61,  62,  63,  64,  65,  66
 297, 298, 299, 300, 301, 302, 303, 304, 305, 306, 307, 308, 309, 310, 311, 312
 313, 314, 315, 316, 317, 318, 319, 320
*Elset, elset=LowerLeftPinHole, instance=TO_Specimen-1
  400,  405,  435,  729,  730,  820, 1023, 1387, 1424, 1432, 1618, 1648, 1708, 1803, 1814, 1836
 1877, 1905, 1978, 1987, 1990, 2002, 2012, 2013, 2019, 2020, 2021, 2027, 2037, 2043, 2046, 2051
 2057, 2060, 2071, 2074, 2090, 2093, 2097, 2116, 2124, 2137, 2138, 2159, 2168, 2188, 2197, 2362
 2403, 2585, 2637, 2650, 2713, 2757, 2765, 2795, 2811, 2815, 2821, 2829, 2849, 2861, 2887, 2888
*Nset, nset=LowerRightPinHole, instance=TO_Specimen-1
   1,   2,  39,  40,  41,  42,  43,  44,  45,  46,  47,  48,  49,  50,  51,  52
 273, 274, 275, 276, 277, 278, 279, 280, 281, 282, 283, 284, 285, 286, 287, 288
 289, 290, 291, 292, 293, 294, 295, 296
*Elset, elset=LowerRightPinHole, instance=TO_Specimen-1
   15,  182,  275,  413,  517,  775, 1114, 1253, 1274, 1280, 1397, 1404, 1408, 1410, 1412, 1417
 1422, 1446, 1449, 1481, 1492, 1494, 1497, 1722, 1744, 1769, 1770, 1775, 1778, 1781, 1783, 1790
 1807, 1811, 1816, 1834, 1860, 1869, 1893, 1914, 1939, 1941, 1951, 1959, 1969, 2131, 2330, 2341
 2342, 2374, 2377, 2641, 2645, 2646, 2652, 2657, 2668, 2715, 2716, 2729, 2733, 2758, 2786, 2825
*Nset, nset=UpperPinHole, instance=TO_Specimen-1
  37,  38, 259, 260, 261, 262, 263, 264, 265, 266, 267, 268, 269, 270, 271, 272
 617, 618, 619, 620, 621, 622, 623, 624, 625, 626, 627, 628, 629, 630, 631, 632
 633, 634, 635, 636, 637, 638, 639, 640
*Elset, elset=UpperPinHole, instance=TO_Specimen-1
   17,  118,  176,  212,  290,  428,  626,  654,  690,  719,  748,  918, 1148, 1161, 1237, 1240
 1243, 1246, 1317, 1403, 1431, 1464, 1473, 1504, 1513, 1516, 1522, 1533, 1536, 1537, 1538, 1539
 1540, 1545, 1550, 1552, 1553, 1558, 1560, 1561, 1563, 1576, 1579, 1580, 1581, 1585, 1596, 1600
 1601, 1609, 1613, 1614, 1631, 1647, 1703, 1730, 1737, 1932, 2232, 2246, 2249, 2279, 2385, 2776
*Nset, nset=UpperRP
 1,
*Elset, elset=_UpperPinSurface_S4, internal, instance=TO_Specimen-1
   17,  212,  290, 1560, 1576, 1580, 1614, 1730, 2249
*Elset, elset=_UpperPinSurface_S3, internal, instance=TO_Specimen-1
  118,  176,  428,  626,  654,  690,  719,  748,  918, 1148, 1237, 1240, 1243, 1246, 1317, 1403
 1431, 1464, 1473, 1504, 1513, 1522, 1533, 1536, 1537, 1538, 1539, 1545, 1552, 1561, 1579, 1581
 1585, 1596, 1600, 1601, 1609, 1613, 1631, 1647, 1703, 1932, 2232, 2246, 2279, 2385, 2776
*Elset, elset=_UpperPinSurface_S1, internal, instance=TO_Specimen-1
 1161, 1553, 1558, 1737
*Elset, elset=_UpperPinSurface_S2, internal, instance=TO_Specimen-1
 1516, 1540, 1550, 1563
*Surface, type=ELEMENT, name=UpperPinSurface
_UpperPinSurface_S4, S4
_UpperPinSurface_S3, S3
_UpperPinSurface_S2, S2
_UpperPinSurface_S1, S1
** Constraint: UpperPinCoupling
*Coupling, constraint name=UpperPinCoupling, ref node=UpperRP, surface=UpperPinSurface
*Kinematic
*End Assembly
** 
** MATERIALS
** 
*Material, name=IN718
*Density
 8.19e-09,
*Elastic
200000., 0.3
*Plastic
 980.,   0.
1100., 0.05
1241.,  0.1
** 
** BOUNDARY CONDITIONS
** 
** Name: LowerLeftPin_BC Type: Displacement/Rotation
*Boundary
LowerLeftPinHole, 2, 2
LowerLeftPinHole, 3, 3
** Name: LowerRightPin_BC Type: Displacement/Rotation
*Boundary
LowerRightPinHole, 2, 2
LowerRightPinHole, 3, 3
** ----------------------------------------------------------------
** 
** STEP: FatigueTest
** 
*Step, name=FatigueTest, nlgeom=YES
*Static
0.1, 1., 1e-08, 1.
** 
** LOADS
** 
** Name: VerticalLoad_100kN   Type: Concentrated force
*Cload
UpperRP, 2, 100000.
** 
** OUTPUT REQUESTS
** 
*Restart, write, frequency=0
** 
** FIELD OUTPUT: F-Output-1
** 
*Output, field
*Node Output
RF, U
*Element Output, directions=YES
E, PE, PEEQ, S
** 
** HISTORY OUTPUT: H-Output-1
** 
*Output, history, variable=PRESELECT
*End Step
