*Heading
 Simple cube compression analysis
** Job name: CubeAnalysis Model name: CubeModel
** Generated by: Abaqus/CAE Learning Edition 2025
*Preprint, echo=NO, model=NO, history=NO, contact=NO
**
** PARTS
**
*Part, name=Cube
*Node
      1,          10.,          10.,          10.
      2,          10.,          7.5,          10.
      3,          10.,           5.,          10.
      4,          10.,          2.5,          10.
      5,          10.,           0.,          10.
      6,          10.,          10.,          7.5
      7,          10.,          7.5,          7.5
      8,          10.,           5.,          7.5
      9,          10.,          2.5,          7.5
     10,          10.,           0.,          7.5
     11,          10.,          10.,           5.
     12,          10.,          7.5,           5.
     13,          10.,           5.,           5.
     14,          10.,          2.5,           5.
     15,          10.,           0.,           5.
     16,          10.,          10.,          2.5
     17,          10.,          7.5,          2.5
     18,          10.,           5.,          2.5
     19,          10.,          2.5,          2.5
     20,          10.,           0.,          2.5
** ... 105 like lines cut
*Element, type=C3D8R
 1,  26,  27,  32,  31,   1,   2,   7,   6
 2,  27,  28,  33,  32,   2,   3,   8,   7
 3,  28,  29,  34,  33,   3,   4,   9,   8
 4,  29,  30,  35,  34,   4,   5,  10,   9
 5,  31,  32,  37,  36,   6,   7,  12,  11
 6,  32,  33,  38,  37,   7,   8,  13,  12
 7,  33,  34,  39,  38,   8,   9,  14,  13
 8,  34,  35,  40,  39,   9,  10,  15,  14
 9,  36,  37,  42,  41,  11,  12,  17,  16
10,  37,  38,  43,  42,  12,  13,  18,  17
11,  38,  39,  44,  43,  13,  14,  19,  18
12,  39,  40,  45,  44,  14,  15,  20,  19
13,  41,  42,  47,  46,  16,  17,  22,  21
14,  42,  43,  48,  47,  17,  18,  23,  22
15,  43,  44,  49,  48,  18,  19,  24,  23
16,  44,  45,  50,  49,  19,  20,  25,  24
17,  51,  52,  57,  56,  26,  27,  32,  31
18,  52,  53,  58,  57,  27,  28,  33,  32
19,  53,  54,  59,  58,  28,  29,  34,  33
20,  54,  55,  60,  59,  29,  30,  35,  34
** ... 44 like lines cut
*Nset, nset=AllCells, generate
   1,  125,    1
*Elset, elset=AllCells, generate
  1,  64,   1
** Section: SolidSection
*Solid Section, elset=AllCells, material=Steel
,
*End Part
**  
**
** ASSEMBLY
**
*Assembly, name=Assembly
**  
*Instance, name=Cube-1, part=Cube
*End Instance
**  
*Nset, nset=BottomFace, instance=Cube-1
  21,  22,  23,  24,  25,  46,  47,  48,  49,  50,  71,  72,  73,  74,  75,  96
  97,  98,  99, 100, 121, 122, 123, 124, 125
*Elset, elset=BottomFace, instance=Cube-1
 13, 14, 15, 16, 29, 30, 31, 32, 45, 46, 47, 48, 61, 62, 63, 64
*Elset, elset=_TopSurface_S3, internal, instance=Cube-1
  1,  2,  3,  4, 17, 18, 19, 20, 33, 34, 35, 36, 49, 50, 51, 52
*Surface, type=ELEMENT, name=TopSurface
_TopSurface_S3, S3
*End Assembly
** 
** MATERIALS
** 
*Material, name=Steel
*Density
 7.85e-09,
*Elastic
210000., 0.3
** 
** BOUNDARY CONDITIONS
** 
** Name: FixBottom Type: Symmetry/Antisymmetry/Encastre
*Boundary
BottomFace, ENCASTRE
** ----------------------------------------------------------------
** 
** STEP: LoadStep
** 
*Step, name=LoadStep, nlgeom=NO
*Static
0.1, 1., 1e-06, 1.
** 
** LOADS
** 
** Name: TopPressure   Type: Pressure
*Dsload
TopSurface, P, 100.
** 
** OUTPUT REQUESTS
** 
*Restart, write, frequency=0
** 
** FIELD OUTPUT: F-Output-1
** 
*Output, field
*Node Output
RF, U
*Element Output, directions=YES
S, 
** 
** HISTORY OUTPUT: H-Output-1
** 
*Output, history, variable=PRESELECT
*End Step
