*Heading
** Job name: Block_Fallback Model name: Model-1
** Generated by: Abaqus/CAE 2025
*Preprint, echo=NO, model=NO, history=NO, contact=NO
**
** PARTS
**
*Part, name=Block
*Node
      1,         100.,          40.,          20.
      2,         100.,          35.,          20.
      3,         100.,          30.,          20.
      4,         100.,          25.,          20.
      5,         100.,          20.,          20.
      6,         100.,          15.,          20.
      7,         100.,          10.,          20.
      8,         100.,           5.,          20.
      9,         100.,           0.,          20.
     10,         100.,          40.,          15.
     11,         100.,          35.,          15.
     12,         100.,          30.,          15.
     13,         100.,          25.,          15.
     14,         100.,          20.,          15.
     15,         100.,          15.,          15.
     16,         100.,          10.,          15.
     17,         100.,           5.,          15.
     18,         100.,           0.,          15.
     19,         100.,          40.,          10.
     20,         100.,          35.,          10.
** ... 925 like lines cut
*Element, type=C3D8R
  1,  46,  47,  56,  55,   1,   2,  11,  10
  2,  47,  48,  57,  56,   2,   3,  12,  11
  3,  48,  49,  58,  57,   3,   4,  13,  12
  4,  49,  50,  59,  58,   4,   5,  14,  13
  5,  50,  51,  60,  59,   5,   6,  15,  14
  6,  51,  52,  61,  60,   6,   7,  16,  15
  7,  52,  53,  62,  61,   7,   8,  17,  16
  8,  53,  54,  63,  62,   8,   9,  18,  17
  9,  55,  56,  65,  64,  10,  11,  20,  19
 10,  56,  57,  66,  65,  11,  12,  21,  20
 11,  57,  58,  67,  66,  12,  13,  22,  21
 12,  58,  59,  68,  67,  13,  14,  23,  22
 13,  59,  60,  69,  68,  14,  15,  24,  23
 14,  60,  61,  70,  69,  15,  16,  25,  24
 15,  61,  62,  71,  70,  16,  17,  26,  25
 16,  62,  63,  72,  71,  17,  18,  27,  26
 17,  64,  65,  74,  73,  19,  20,  29,  28
 18,  65,  66,  75,  74,  20,  21,  30,  29
 19,  66,  67,  76,  75,  21,  22,  31,  30
 20,  67,  68,  77,  76,  22,  23,  32,  31
** ... 620 like lines cut
*Nset, nset=AllCells, generate
   1,  945,    1
*Elset, elset=AllCells, generate
   1,  640,    1
*Nset, nset=FixedFace, generate
 901,  945,    1
*Elset, elset=FixedFace, generate
 609,  640,    1
*Elset, elset=FrozenElems, generate
 609,  640,    1
*Elset, elset=_LoadSurface_S2, internal, generate
  1,  32,   1
*Surface, type=ELEMENT, name=LoadSurface
_LoadSurface_S2, S2
** Section: Section
*Solid Section, elset=AllCells, material=Steel
,
*End Part
**  
**
** ASSEMBLY
**
*Assembly, name=Assembly
**  
*Instance, name=Block-1, part=Block
*End Instance
**  
*End Assembly
** 
** MATERIALS
** 
*Material, name=Steel
*Density
 7.85e-09,
*Elastic
210000., 0.3
** 
** BOUNDARY CONDITIONS
** 
** Name: Fixed Type: Symmetry/Antisymmetry/Encastre
*Boundary
Block-1.FixedFace, ENCASTRE
** ----------------------------------------------------------------
** 
** STEP: LoadStep
** 
*Step, name=LoadStep, nlgeom=NO
*Static
1., 1., 1e-06, 1.
** 
** LOADS
** 
** Name: Load   Type: Pressure
*Dsload
Block-1.LoadSurface, P, 1.
** 
** OUTPUT REQUESTS
** 
*Restart, write, frequency=0
** 
** FIELD OUTPUT: F-Output-1
** 
*Output, field
*Node Output
RF, U
*Element Output, directions=YES
E, ENER, S
** 
** HISTORY OUTPUT: H-Output-1
** 
*Output, history, variable=PRESELECT
*End Step
