*Heading
** Job name: Block_FEA Model name: Block_TO
** Generated by: Abaqus/CAE 2025
*Preprint, echo=NO, model=NO, history=NO, contact=NO
**
** PARTS
**
*Part, name=Block
*Node
      1,         100.,          40.,          20.
      2,         100.,          30.,          20.
      3,         100.,          20.,          20.
      4,         100.,          10.,          20.
      5,         100.,           0.,          20.
      6,         100.,          40.,          10.
      7,         100.,          30.,          10.
      8,         100.,          20.,          10.
      9,         100.,          10.,          10.
     10,         100.,           0.,          10.
     11,         100.,          40.,           0.
     12,         100.,          30.,           0.
     13,         100.,          20.,           0.
     14,         100.,          10.,           0.
     15,         100.,           0.,           0.
     16,          90.,          40.,          20.
     17,          90.,          30.,          20.
     18,          90.,          20.,          20.
     19,          90.,          10.,          20.
     20,          90.,           0.,          20.
** ... 145 like lines cut
*Element, type=C3D8R
 1,  16,  17,  22,  21,   1,   2,   7,   6
 2,  17,  18,  23,  22,   2,   3,   8,   7
 3,  18,  19,  24,  23,   3,   4,   9,   8
 4,  19,  20,  25,  24,   4,   5,  10,   9
 5,  21,  22,  27,  26,   6,   7,  12,  11
 6,  22,  23,  28,  27,   7,   8,  13,  12
 7,  23,  24,  29,  28,   8,   9,  14,  13
 8,  24,  25,  30,  29,   9,  10,  15,  14
 9,  31,  32,  37,  36,  16,  17,  22,  21
10,  32,  33,  38,  37,  17,  18,  23,  22
11,  33,  34,  39,  38,  18,  19,  24,  23
12,  34,  35,  40,  39,  19,  20,  25,  24
13,  36,  37,  42,  41,  21,  22,  27,  26
14,  37,  38,  43,  42,  22,  23,  28,  27
15,  38,  39,  44,  43,  23,  24,  29,  28
16,  39,  40,  45,  44,  24,  25,  30,  29
17,  46,  47,  52,  51,  31,  32,  37,  36
18,  47,  48,  53,  52,  32,  33,  38,  37
19,  48,  49,  54,  53,  33,  34,  39,  38
20,  49,  50,  55,  54,  34,  35,  40,  39
** ... 60 like lines cut
*Nset, nset=AllCells, generate
   1,  165,    1
*Elset, elset=AllCells, generate
  1,  80,   1
** Section: Section
*Solid Section, elset=AllCells, material=Steel
,
*End Part
**  
**
** ASSEMBLY
**
*Assembly, name=Assembly
**  
*Instance, name=Block-1, part=Block
*End Instance
**  
*Nset, nset=FixedFace, instance=Block-1, generate
 151,  165,    1
*Elset, elset=FixedFace, instance=Block-1, generate
 73,  80,   1
*Elset, elset=FrozenElements, instance=Block-1, generate
 73,  80,   1
*Elset, elset=_LoadSurface_S2, internal, instance=Block-1, generate
 1,  8,  1
*Surface, type=ELEMENT, name=LoadSurface
_LoadSurface_S2, S2
*End Assembly
** 
** MATERIALS
** 
*Material, name=Steel
*Density
 7.85e-09,
*Elastic
210000., 0.3
** 
** BOUNDARY CONDITIONS
** 
** Name: Fixed Type: Symmetry/Antisymmetry/Encastre
*Boundary
FixedFace, ENCASTRE
** ----------------------------------------------------------------
** 
** STEP: LoadStep
** 
*Step, name=LoadStep, nlgeom=NO
*Static
1., 1., 1e-06, 1.
** 
** LOADS
** 
** Name: Load   Type: Pressure
*Dsload
LoadSurface, P, 1.
** 
** OUTPUT REQUESTS
** 
*Restart, write, frequency=0
** 
** FIELD OUTPUT: F-Output-1
** 
*Output, field
*Node Output
RF, U
*Element Output, directions=YES
ENER, S
** 
** HISTORY OUTPUT: H-Output-1
** 
*Output, history, variable=PRESELECT
*End Step
