*Heading
** Job name: Experiment5_FEA Model name: Experiment5_TO
** Generated by: Abaqus/CAE 2025
*Preprint, echo=NO, model=NO, history=NO, contact=NO
**
** PARTS
**
*Part, name=TO_Specimen
*Node
      1,  -14.3000002,           0.,          25.
      2,  -32.2999992,           0.,          25.
      3,  -32.2999992,           0.,           0.
      4,  -14.3000002,           0.,           0.
      5,  -32.2999992,          28.,           0.
      6,  -14.3000002,          28.,           0.
      7,  -14.3000002,          28.,          25.
      8,  -32.2999992,          28.,          25.
      9,  -14.3000002,          14.,   18.8500004
     10,  -32.2999992,          14.,   18.8500004
     11,           9.,   118.169998,          25.
     12,           9.,   118.169998,           0.
     13,          -9.,   118.169998,           0.
     14,          -9.,   118.169998,          25.
     15,           5.,   106.169998,          25.
     16,           5.,   106.169998,           0.
     17,   32.2999992,          28.,          25.
     18,   32.2999992,          28.,           0.
     19,   14.3000002,          28.,           0.
     20,   14.3000002,          28.,          25.
** ... 4732 like lines cut
*Element, type=C3D4
   1, 2643,   49,  822,  817
   2, 2643, 2644, 2645,  817
   3, 2643, 2646,  623, 2647
   4, 2643, 2644, 2647, 2645
   5, 2648, 2649, 2650,  621
   6, 2649, 2650,  621, 2651
   7,  626, 2651, 2650, 2652
   8, 2651,  627, 2652,  626
   9, 2651, 2652,  627, 2647
  10,  622, 2653, 2654, 2651
  11, 2655, 2656,  857, 2657
  12, 2651, 2653, 2652, 2647
  13, 2656,  857,  858, 2655
  14, 2658,  766,  112,  111
  15,  111, 2658, 2659,  744
  16, 2658,  765,  112,  766
  17, 2658, 2659,  744, 2660
  18, 2658, 2659, 2660, 2661
  19, 2662, 2663,  898, 2664
  20, 2658,  788, 2665,  765
** ... 20507 like lines cut
*Elset, elset=_TO_Specimen-1_ALL_ELEMENTS, internal, generate
     1,  20527,      1
*Nset, nset=FrozenUpperPin
   11,   12,   13,   14,   27,   28,   29,   30,   31,   32,  143,  144,  145,  146,  147,  148
  149,  150,  151,  152,  153,  154,  155,  156,  157,  158,  159,  160,  161,  162,  163,  164
  165,  166,  439,  440,  441,  442,  443,  444,  445,  446,  447,  448,  449,  450,  451,  452
  453,  454,  455,  456,  457,  458,  459,  460,  461,  462,  463,  464,  465,  466,  467,  468
  469,  470,  471,  472,  473,  474,  475,  476,  477,  478,  479,  480,  481,  482,  483,  484
  485,  486,  487,  488,  489,  490,  491,  492,  493,  494,  495,  496,  497,  498,  499,  500
  501,  502,  503,  504,  505,  506,  507,  508,  509,  510,  511,  512,  513,  514,  515,  516
  517,  518,  900,  901,  902,  903,  904,  905,  906,  907,  908,  909,  910,  911,  912,  913
  914,  915,  916,  917,  918,  919,  920,  921,  922,  923,  924,  925,  926,  927,  928,  929
  930,  931,  932,  933,  934, 2111, 2112, 2113, 2114, 2115, 2116, 2117, 2118, 2119, 2120, 2121
 2122, 2123, 2124, 2125, 2126, 2127, 2128, 2129, 2130, 2131, 2132, 2133, 2134, 2135, 2136, 2137
 2138, 2139, 2140, 2141, 2142, 2143, 2144, 2145, 2146, 2147, 2148, 2149, 2150, 2151, 2152, 2153
 2154, 2155, 2156, 2157, 2158, 2159, 2160, 2161, 2162, 2163, 2164, 2165, 2166, 2167, 2168, 2169
 2170, 2171, 2172, 2173, 2174, 2175, 2176, 2177, 2178, 2179, 2180, 2181, 2182, 2183, 2184, 2185
 2186, 2187, 2188, 2189, 2190, 2191, 2192, 2193, 2194, 2195, 2196, 2197, 2198, 2199, 2200, 2201
 2202, 2203, 2204, 2205, 2206, 2207, 2208, 2209, 2210, 2211, 2212, 2213, 2214, 2215, 2216, 2217
 2218, 2219, 2220, 2221, 2222, 2223, 2224, 2225, 2226, 2227, 2228, 2229, 2230, 2231, 2232, 2233
 2234, 2235, 2236, 2237, 2238, 2239, 2240, 2241, 2242, 2243, 2244, 2245, 2246, 2247, 2248, 2249
 2250, 2251, 2252, 2253, 2254, 2255, 2256, 2257, 2258, 2259, 2260, 2261, 2262, 2263, 2264, 2265
 2266, 2267, 2268, 2269, 2270, 2271, 2272, 2273, 2274, 2275, 2276, 2277, 2278, 2279, 2280, 2281
** ... 23 like lines cut
*Elset, elset=FrozenUpperPin, generate
 15108,  17841,      1
*Nset, nset=FrozenLowerLeftPin
    1,    2,    3,    4,    5,    6,    7,    8,    9,   10,   39,   40,   41,   42,   43,   44
   45,   46,   47,   48,   49,   50,   51,   52,   53,   54,   55,   56,   57,   58,   59,   60
   61,   62,   63,   64,   65,   66,   67,   68,   69,   70,   71,   72,   73,   74,   75,   76
   77,   78,   79,   80,   81,   82,   83,   84,   85,   86,   87,   88,   89,   90,   91,   92
   93,   94,   95,   96,   97,   98,   99,  100,  101,  102,  103,  104,  105,  106,  107,  108
  109,  110,  111,  112,  113,  114,  115,  116,  117,  118,  119,  120,  121,  122,  123,  124
  125,  126,  127,  128,  129,  130,  131,  132,  133,  134,  135,  136,  137,  138,  139,  140
  141,  142,  599,  600,  601,  602,  603,  604,  605,  606,  607,  608,  609,  610,  611,  612
  613,  614,  615,  616,  617,  618,  619,  620,  621,  622,  623,  624,  625,  626,  627,  628
  629,  630,  631,  632,  633,  634,  635,  636,  637,  638,  639,  640,  641,  642,  643,  644
  645,  646,  647,  648,  649,  650,  651,  652,  653,  654,  655,  656,  657,  658,  659,  660
  661,  662,  663,  664,  665,  666,  667,  668,  669,  670,  671,  672,  673,  674,  675,  676
  677,  678,  679,  680,  681,  682,  683,  684,  685,  686,  687,  688,  689,  690,  691,  692
  693,  694,  695,  696,  697,  698,  699,  700,  701,  702,  703,  704,  705,  706,  707,  708
  709,  710,  711,  712,  713,  714,  715,  716,  717,  718,  719,  720,  721,  722,  723,  724
  725,  726,  727,  728,  729,  730,  731,  732,  733,  734,  735,  736,  737,  738,  739,  740
  741,  742,  743,  744,  745,  746,  747,  748,  749,  750,  751,  752,  753,  754,  755,  756
  757,  758,  759,  760,  761,  762,  763,  764,  765,  766,  767,  768,  769,  770,  771,  772
  773,  774,  775,  776,  777,  778,  779,  780,  781,  782,  783,  784,  785,  786,  787,  788
  789,  790,  791,  792,  793,  794,  795,  796,  797,  798,  799,  800,  801,  802,  803,  804
** ... 22 like lines cut
*Elset, elset=FrozenLowerLeftPin, generate
    1,  2641,     1
*Nset, nset=FrozenLowerRightPin
   17,   18,   19,   20,   33,   34,   35,   36,   37,   38,  207,  208,  209,  210,  211,  212
  213,  241,  242,  243,  244,  245,  246,  247,  248,  249,  250,  251,  252,  253,  254,  255
  256,  257,  519,  520,  521,  522,  523,  524,  525,  526,  527,  528,  529,  530,  531,  532
  533,  534,  535,  536,  537,  538,  539,  540,  541,  542,  543,  544,  545,  546,  547,  548
  549,  550,  551,  552,  553,  554,  555,  556,  557,  558,  559,  560,  561,  562,  563,  564
  565,  566,  567,  568,  569,  570,  571,  572,  573,  574,  575,  576,  577,  578,  579,  580
  581,  582,  583,  584,  585,  586,  587,  588,  589,  590,  591,  592,  593,  594,  595,  596
  597,  598, 1145, 1146, 1147, 1148, 1149, 1150, 1151, 1152, 1153, 1154, 1155, 1156, 1157, 1158
 1159, 1160, 1161, 1162, 1163, 1164, 1165, 1166, 1167, 1168, 1169, 1170, 1171, 1172, 1173, 1174
 1175, 1176, 1177, 1178, 1179, 2377, 2378, 2379, 2380, 2381, 2382, 2383, 2384, 2385, 2386, 2387
 2388, 2389, 2390, 2391, 2392, 2393, 2394, 2395, 2396, 2397, 2398, 2399, 2400, 2401, 2402, 2403
 2404, 2405, 2406, 2407, 2408, 2409, 2410, 2411, 2412, 2413, 2414, 2415, 2416, 2417, 2418, 2419
 2420, 2421, 2422, 2423, 2424, 2425, 2426, 2427, 2428, 2429, 2430, 2431, 2432, 2433, 2434, 2435
 2436, 2437, 2438, 2439, 2440, 2441, 2442, 2443, 2444, 2445, 2446, 2447, 2448, 2449, 2450, 2451
 2452, 2453, 2454, 2455, 2456, 2457, 2458, 2459, 2460, 2461, 2462, 2463, 2464, 2465, 2466, 2467
 2468, 2469, 2470, 2471, 2472, 2473, 2474, 2475, 2476, 2477, 2478, 2479, 2480, 2481, 2482, 2483
 2484, 2485, 2486, 2487, 2488, 2489, 2490, 2491, 2492, 2493, 2494, 2495, 2496, 2497, 2498, 2499
 2500, 2501, 2502, 2503, 2504, 2505, 2506, 2507, 2508, 2509, 2510, 2511, 2512, 2513, 2514, 2515
 2516, 2517, 2518, 2519, 2520, 2521, 2522, 2523, 2524, 2525, 2526, 2527, 2528, 2529, 2530, 2531
 2532, 2533, 2534, 2535, 2536, 2537, 2538, 2539, 2540, 2541, 2542, 2543, 2544, 2545, 2546, 2547
** ... 22 like lines cut
*Elset, elset=FrozenLowerRightPin, generate
 17842,  20527,      1
*Nset, nset=DesignSpace
    5,    6,    7,    8,   11,   12,   13,   14,   15,   16,   17,   18,   19,   20,   21,   22
   23,   24,   25,   26,   63,   64,   65,   66,   67,   84,   85,   86,   87,   88,   89,   90
   91,   92,   93,   94,   95,   96,   97,   98,   99,  100,  101,  102,  143,  144,  145,  146
  147,  148,  149,  150,  151,  152,  153,  154,  155,  156,  157,  158,  159,  160,  161,  162
  163,  164,  165,  166,  167,  168,  169,  170,  171,  172,  173,  174,  175,  176,  177,  178
  179,  180,  181,  182,  183,  184,  185,  186,  187,  188,  189,  190,  191,  192,  193,  194
  195,  196,  197,  198,  199,  200,  201,  202,  203,  204,  205,  206,  207,  208,  209,  210
  211,  212,  213,  214,  215,  216,  217,  218,  219,  220,  221,  222,  223,  224,  225,  226
  227,  228,  229,  230,  231,  232,  233,  234,  235,  236,  237,  238,  239,  240,  241,  242
  243,  244,  245,  246,  247,  248,  249,  250,  251,  252,  253,  254,  255,  256,  257,  258
  259,  260,  261,  262,  263,  264,  265,  266,  267,  268,  269,  270,  271,  272,  273,  274
  275,  276,  277,  278,  279,  280,  281,  282,  283,  284,  285,  286,  287,  288,  289,  290
  291,  292,  293,  294,  295,  296,  297,  298,  299,  300,  301,  302,  303,  304,  305,  306
  307,  308,  309,  310,  311,  312,  313,  314,  315,  316,  317,  318,  319,  320,  321,  322
  323,  324,  325,  326,  327,  328,  329,  330,  331,  332,  333,  334,  335,  336,  337,  338
  339,  340,  341,  342,  343,  344,  345,  346,  347,  348,  349,  350,  351,  352,  353,  354
  355,  356,  357,  358,  359,  360,  361,  362,  363,  364,  365,  366,  367,  368,  369,  370
  371,  372,  373,  374,  375,  376,  377,  378,  379,  380,  381,  382,  383,  384,  385,  386
  387,  388,  389,  390,  391,  392,  393,  394,  395,  396,  397,  398,  399,  400,  401,  402
  403,  404,  405,  406,  407,  408,  409,  410,  411,  412,  413,  414,  415,  416,  417,  418
** ... 163 like lines cut
*Elset, elset=DesignSpace, generate
  2642,  15107,      1
*Nset, nset=AllCells, generate
    1,  4752,     1
*Elset, elset=AllCells, generate
     1,  20527,      1
** Section: SolidSection
*Solid Section, elset=AllCells, material=IN718
,
*End Part
**  
**
** ASSEMBLY
**
*Assembly, name=Assembly
**  
*Instance, name=TO_Specimen-1, part=TO_Specimen
*End Instance
**  
*Node
      1,           0.,   132.169998,         12.5
*Nset, nset=FreezeLowerLeft, instance=TO_Specimen-1
    1,    2,    3,    4,    5,    6,    7,    8,    9,   10,   39,   40,   41,   42,   43,   44
   45,   46,   47,   48,   49,   50,   51,   52,   53,   54,   55,   56,   57,   58,   59,   60
   61,   62,   63,   64,   65,   66,   67,   68,   69,   70,   71,   72,   73,   74,   75,   76
   77,   78,   79,   80,   81,   82,   83,   84,   85,   86,   87,   88,   89,   90,   91,   92
   93,   94,   95,   96,   97,   98,   99,  100,  101,  102,  103,  104,  105,  106,  107,  108
  109,  110,  111,  112,  113,  114,  115,  116,  117,  118,  119,  120,  121,  122,  123,  124
  125,  126,  127,  128,  129,  130,  131,  132,  133,  134,  135,  136,  137,  138,  139,  140
  141,  142,  599,  600,  601,  602,  603,  604,  605,  606,  607,  608,  609,  610,  611,  612
  613,  614,  615,  616,  617,  618,  619,  620,  621,  622,  623,  624,  625,  626,  627,  628
  629,  630,  631,  632,  633,  634,  635,  636,  637,  638,  639,  640,  641,  642,  643,  644
  645,  646,  647,  648,  649,  650,  651,  652,  653,  654,  655,  656,  657,  658,  659,  660
  661,  662,  663,  664,  665,  666,  667,  668,  669,  670,  671,  672,  673,  674,  675,  676
  677,  678,  679,  680,  681,  682,  683,  684,  685,  686,  687,  688,  689,  690,  691,  692
  693,  694,  695,  696,  697,  698,  699,  700,  701,  702,  703,  704,  705,  706,  707,  708
  709,  710,  711,  712,  713,  714,  715,  716,  717,  718,  719,  720,  721,  722,  723,  724
  725,  726,  727,  728,  729,  730,  731,  732,  733,  734,  735,  736,  737,  738,  739,  740
  741,  742,  743,  744,  745,  746,  747,  748,  749,  750,  751,  752,  753,  754,  755,  756
  757,  758,  759,  760,  761,  762,  763,  764,  765,  766,  767,  768,  769,  770,  771,  772
  773,  774,  775,  776,  777,  778,  779,  780,  781,  782,  783,  784,  785,  786,  787,  788
  789,  790,  791,  792,  793,  794,  795,  796,  797,  798,  799,  800,  801,  802,  803,  804
** ... 22 like lines cut
*Elset, elset=FreezeLowerLeft, instance=TO_Specimen-1, generate
    1,  2641,     1
*Nset, nset=FreezeLowerRight, instance=TO_Specimen-1
   17,   18,   19,   20,   33,   34,   35,   36,   37,   38,  207,  208,  209,  210,  211,  212
  213,  241,  242,  243,  244,  245,  246,  247,  248,  249,  250,  251,  252,  253,  254,  255
  256,  257,  519,  520,  521,  522,  523,  524,  525,  526,  527,  528,  529,  530,  531,  532
  533,  534,  535,  536,  537,  538,  539,  540,  541,  542,  543,  544,  545,  546,  547,  548
  549,  550,  551,  552,  553,  554,  555,  556,  557,  558,  559,  560,  561,  562,  563,  564
  565,  566,  567,  568,  569,  570,  571,  572,  573,  574,  575,  576,  577,  578,  579,  580
  581,  582,  583,  584,  585,  586,  587,  588,  589,  590,  591,  592,  593,  594,  595,  596
  597,  598, 1145, 1146, 1147, 1148, 1149, 1150, 1151, 1152, 1153, 1154, 1155, 1156, 1157, 1158
 1159, 1160, 1161, 1162, 1163, 1164, 1165, 1166, 1167, 1168, 1169, 1170, 1171, 1172, 1173, 1174
 1175, 1176, 1177, 1178, 1179, 2377, 2378, 2379, 2380, 2381, 2382, 2383, 2384, 2385, 2386, 2387
 2388, 2389, 2390, 2391, 2392, 2393, 2394, 2395, 2396, 2397, 2398, 2399, 2400, 2401, 2402, 2403
 2404, 2405, 2406, 2407, 2408, 2409, 2410, 2411, 2412, 2413, 2414, 2415, 2416, 2417, 2418, 2419
 2420, 2421, 2422, 2423, 2424, 2425, 2426, 2427, 2428, 2429, 2430, 2431, 2432, 2433, 2434, 2435
 2436, 2437, 2438, 2439, 2440, 2441, 2442, 2443, 2444, 2445, 2446, 2447, 2448, 2449, 2450, 2451
 2452, 2453, 2454, 2455, 2456, 2457, 2458, 2459, 2460, 2461, 2462, 2463, 2464, 2465, 2466, 2467
 2468, 2469, 2470, 2471, 2472, 2473, 2474, 2475, 2476, 2477, 2478, 2479, 2480, 2481, 2482, 2483
 2484, 2485, 2486, 2487, 2488, 2489, 2490, 2491, 2492, 2493, 2494, 2495, 2496, 2497, 2498, 2499
 2500, 2501, 2502, 2503, 2504, 2505, 2506, 2507, 2508, 2509, 2510, 2511, 2512, 2513, 2514, 2515
 2516, 2517, 2518, 2519, 2520, 2521, 2522, 2523, 2524, 2525, 2526, 2527, 2528, 2529, 2530, 2531
 2532, 2533, 2534, 2535, 2536, 2537, 2538, 2539, 2540, 2541, 2542, 2543, 2544, 2545, 2546, 2547
** ... 22 like lines cut
*Elset, elset=FreezeLowerRight, instance=TO_Specimen-1, generate
 17842,  20527,      1
*Nset, nset=FreezeUpperPin, instance=TO_Specimen-1
   11,   12,   13,   14,   27,   28,   29,   30,   31,   32,  143,  144,  145,  146,  147,  148
  149,  150,  151,  152,  153,  154,  155,  156,  157,  158,  159,  160,  161,  162,  163,  164
  165,  166,  439,  440,  441,  442,  443,  444,  445,  446,  447,  448,  449,  450,  451,  452
  453,  454,  455,  456,  457,  458,  459,  460,  461,  462,  463,  464,  465,  466,  467,  468
  469,  470,  471,  472,  473,  474,  475,  476,  477,  478,  479,  480,  481,  482,  483,  484
  485,  486,  487,  488,  489,  490,  491,  492,  493,  494,  495,  496,  497,  498,  499,  500
  501,  502,  503,  504,  505,  506,  507,  508,  509,  510,  511,  512,  513,  514,  515,  516
  517,  518,  900,  901,  902,  903,  904,  905,  906,  907,  908,  909,  910,  911,  912,  913
  914,  915,  916,  917,  918,  919,  920,  921,  922,  923,  924,  925,  926,  927,  928,  929
  930,  931,  932,  933,  934, 2111, 2112, 2113, 2114, 2115, 2116, 2117, 2118, 2119, 2120, 2121
 2122, 2123, 2124, 2125, 2126, 2127, 2128, 2129, 2130, 2131, 2132, 2133, 2134, 2135, 2136, 2137
 2138, 2139, 2140, 2141, 2142, 2143, 2144, 2145, 2146, 2147, 2148, 2149, 2150, 2151, 2152, 2153
 2154, 2155, 2156, 2157, 2158, 2159, 2160, 2161, 2162, 2163, 2164, 2165, 2166, 2167, 2168, 2169
 2170, 2171, 2172, 2173, 2174, 2175, 2176, 2177, 2178, 2179, 2180, 2181, 2182, 2183, 2184, 2185
 2186, 2187, 2188, 2189, 2190, 2191, 2192, 2193, 2194, 2195, 2196, 2197, 2198, 2199, 2200, 2201
 2202, 2203, 2204, 2205, 2206, 2207, 2208, 2209, 2210, 2211, 2212, 2213, 2214, 2215, 2216, 2217
 2218, 2219, 2220, 2221, 2222, 2223, 2224, 2225, 2226, 2227, 2228, 2229, 2230, 2231, 2232, 2233
 2234, 2235, 2236, 2237, 2238, 2239, 2240, 2241, 2242, 2243, 2244, 2245, 2246, 2247, 2248, 2249
 2250, 2251, 2252, 2253, 2254, 2255, 2256, 2257, 2258, 2259, 2260, 2261, 2262, 2263, 2264, 2265
 2266, 2267, 2268, 2269, 2270, 2271, 2272, 2273, 2274, 2275, 2276, 2277, 2278, 2279, 2280, 2281
** ... 23 like lines cut
*Elset, elset=FreezeUpperPin, instance=TO_Specimen-1, generate
 15108,  17841,      1
*Nset, nset=LowerLeftPinHole, instance=TO_Specimen-1
   9,  10, 119, 120, 121, 122, 123, 124, 125, 126, 127, 128, 129, 130, 131, 132
 133, 134, 135, 136, 137, 138, 139, 140, 141, 142, 835, 836, 837, 838, 839, 840
 841, 842, 843, 844, 845, 846, 847, 848, 849, 850, 851, 852, 853, 854, 855, 856
 857, 858, 859, 860, 861, 862, 863, 864, 865, 866, 867, 868, 869, 870, 871, 872
 873, 874, 875, 876, 877, 878, 879, 880, 881, 882, 883, 884, 885, 886, 887, 888
 889, 890, 891, 892, 893, 894, 895, 896, 897, 898, 899
*Elset, elset=LowerLeftPinHole, instance=TO_Specimen-1
   42,  207,  288,  289,  302,  400,  542,  662,  735,  740,  763,  806,  849,  923,  961,  965
  968, 1104, 1156, 1168, 1231, 1328, 1439, 1443, 1445, 1456, 1462, 1466, 1527, 1537, 1542, 1576
 1586, 1597, 1625, 1632, 1638, 1641, 1658, 1669, 1674, 1680, 1691, 1702, 1715, 1716, 1717, 1728
 1733, 1743, 1748, 1760, 1766, 1771, 1774, 1783, 1785, 1789, 1815, 1816, 1820, 1825, 1828, 1829
 1833, 1838, 1843, 1844, 1850, 1860, 1873, 1882, 1889, 1897, 1899, 1900, 1911, 1912, 1916, 1919
 1929, 1931, 1936, 1937, 1944, 1953, 1962, 1965, 1970, 1974, 1981, 1983, 1989, 1991, 1996, 1999
 2000, 2002, 2005, 2006, 2011, 2014, 2020, 2027, 2040, 2053, 2057, 2067, 2087, 2090, 2096, 2098
 2100, 2101, 2105, 2109, 2111, 2124, 2129, 2137, 2146, 2153, 2169, 2171, 2175, 2184, 2192, 2193
 2244, 2246, 2249, 2278, 2283, 2285, 2295, 2300, 2311, 2316, 2333, 2343, 2356, 2363, 2365, 2397
 2404, 2407, 2437, 2442, 2450, 2452, 2495, 2504, 2524, 2578, 2631, 2641
*Nset, nset=LowerRightPinHole, instance=TO_Specimen-1
   33,   34,  519,  520,  521,  522,  523,  524,  525,  526,  527,  528,  529,  530,  531,  532
  533,  534,  535,  536,  537,  538,  539,  540,  541,  542, 2377, 2378, 2379, 2380, 2381, 2382
 2383, 2384, 2385, 2386, 2387, 2388, 2389, 2390, 2391, 2392, 2393, 2394, 2395, 2396, 2397, 2398
 2399, 2400, 2401, 2402, 2403, 2404, 2405, 2406, 2407, 2408, 2409, 2410, 2411, 2412, 2413, 2414
 2415, 2416, 2417, 2418, 2419, 2420, 2421, 2422, 2423, 2424, 2425, 2426, 2427, 2428, 2429, 2430
 2431, 2432, 2433, 2434, 2435, 2436, 2437, 2438, 2439, 2440, 2441
*Elset, elset=LowerRightPinHole, instance=TO_Specimen-1
 17869, 18006, 18025, 18174, 18204, 18258, 18268, 18384, 18474, 18503, 18512, 18526, 18612, 18624, 18646, 18668
 18860, 18891, 19055, 19081, 19169, 19186, 19217, 19222, 19238, 19306, 19315, 19317, 19319, 19356, 19406, 19461
 19462, 19465, 19480, 19481, 19482, 19486, 19492, 19497, 19504, 19512, 19532, 19542, 19550, 19561, 19564, 19575
 19589, 19591, 19605, 19611, 19620, 19625, 19626, 19633, 19643, 19648, 19649, 19650, 19652, 19663, 19665, 19669
 19698, 19707, 19718, 19727, 19730, 19748, 19749, 19758, 19760, 19761, 19769, 19774, 19776, 19787, 19793, 19797
 19799, 19801, 19814, 19822, 19824, 19825, 19830, 19831, 19833, 19849, 19867, 19869, 19893, 19895, 19896, 19902
 19909, 19918, 19926, 19935, 19938, 19954, 19955, 19956, 19957, 19978, 19982, 19987, 19989, 19990, 19996, 20002
 20006, 20007, 20008, 20020, 20032, 20037, 20038, 20045, 20049, 20056, 20057, 20061, 20064, 20088, 20089, 20100
 20106, 20118, 20127, 20132, 20150, 20173, 20180, 20183, 20188, 20212, 20223, 20261, 20285, 20290, 20296, 20297
 20340, 20343, 20359, 20361, 20435, 20442, 20449, 20475, 20496, 20499, 20505, 20513
*Nset, nset=UpperPinHole, instance=TO_Specimen-1
   31,   32,  463,  464,  465,  466,  467,  468,  469,  470,  471,  472,  473,  474,  475,  476
  477,  478,  479,  480,  481,  482,  483,  484,  485,  486, 2146, 2147, 2148, 2149, 2150, 2151
 2152, 2153, 2154, 2155, 2156, 2157, 2158, 2159, 2160, 2161, 2162, 2163, 2164, 2165, 2166, 2167
 2168, 2169, 2170, 2171, 2172, 2173, 2174, 2175, 2176, 2177, 2178, 2179, 2180, 2181, 2182, 2183
 2184, 2185, 2186, 2187, 2188, 2189, 2190, 2191, 2192, 2193, 2194, 2195, 2196, 2197, 2198, 2199
 2200, 2201, 2202, 2203, 2204, 2205, 2206, 2207, 2208, 2209, 2210
*Elset, elset=UpperPinHole, instance=TO_Specimen-1
 15222, 15336, 15560, 15566, 15736, 15753, 15775, 16160, 16200, 16292, 16308, 16402, 16433, 16458, 16601, 16683
 16696, 16756, 16781, 16826, 16843, 16844, 16882, 16897, 16923, 16940, 16943, 16945, 16958, 16996, 17000, 17004
 17006, 17012, 17013, 17027, 17043, 17049, 17087, 17090, 17109, 17129, 17130, 17136, 17140, 17143, 17151, 17182
 17195, 17198, 17208, 17215, 17217, 17228, 17229, 17232, 17235, 17251, 17256, 17267, 17276, 17278, 17280, 17284
 17288, 17289, 17292, 17299, 17302, 17303, 17319, 17333, 17336, 17351, 17359, 17363, 17365, 17375, 17376, 17379
 17380, 17381, 17383, 17384, 17387, 17406, 17409, 17414, 17426, 17436, 17437, 17438, 17442, 17451, 17454, 17458
 17464, 17465, 17470, 17471, 17474, 17478, 17479, 17501, 17502, 17506, 17509, 17519, 17522, 17526, 17535, 17536
 17545, 17548, 17555, 17568, 17571, 17575, 17584, 17586, 17594, 17601, 17605, 17607, 17610, 17611, 17612, 17621
 17628, 17631, 17634, 17636, 17640, 17646, 17655, 17657, 17667, 17672, 17673, 17674, 17683, 17685, 17730, 17733
 17763, 17774, 17779, 17786, 17802, 17804, 17806, 17816, 17824, 17827, 17831, 17837
*Nset, nset=UpperRP
 1,
*Elset, elset=_UpperPinSurface_S2, internal, instance=TO_Specimen-1
 15222, 16458, 17013, 17136, 17251, 17267, 17278, 17478, 17575, 17636, 17802
*Elset, elset=_UpperPinSurface_S3, internal, instance=TO_Specimen-1
 15336, 15566, 15736, 15775, 16160, 16200, 16292, 16402, 16433, 16601, 16683, 16696, 16756, 16781, 16826, 16843
 16844, 16882, 16897, 16923, 16940, 16943, 16945, 16958, 17000, 17004, 17006, 17012, 17027, 17043, 17049, 17090
 17109, 17130, 17143, 17151, 17182, 17195, 17198, 17208, 17215, 17217, 17229, 17232, 17235, 17256, 17276, 17280
 17289, 17292, 17299, 17302, 17303, 17319, 17333, 17336, 17351, 17359, 17363, 17365, 17375, 17376, 17379, 17380
 17381, 17383, 17384, 17387, 17406, 17409, 17414, 17426, 17436, 17437, 17438, 17442, 17451, 17454, 17458, 17465
 17470, 17471, 17474, 17479, 17501, 17502, 17506, 17509, 17522, 17526, 17535, 17536, 17545, 17548, 17555, 17568
 17571, 17584, 17586, 17594, 17601, 17605, 17607, 17610, 17611, 17612, 17621, 17628, 17631, 17634, 17640, 17655
 17657, 17672, 17673, 17674, 17683, 17685, 17730, 17733, 17763, 17779, 17786, 17804, 17806, 17816, 17824, 17827
 17831, 17837
*Elset, elset=_UpperPinSurface_S1, internal, instance=TO_Specimen-1
 15560, 15753, 16308, 16996, 17087, 17129, 17228, 17464, 17519, 17646
*Elset, elset=_UpperPinSurface_S4, internal, instance=TO_Specimen-1
 17140, 17284, 17288, 17667, 17774
*Surface, type=ELEMENT, name=UpperPinSurface
_UpperPinSurface_S2, S2
_UpperPinSurface_S3, S3
_UpperPinSurface_S4, S4
_UpperPinSurface_S1, S1
** Constraint: UpperPinCoupling
*Coupling, constraint name=UpperPinCoupling, ref node=UpperRP, surface=UpperPinSurface
*Kinematic
*End Assembly
** 
** MATERIALS
** 
*Material, name=IN718
*Density
 8.19e-09,
*Elastic
200000., 0.3
** 
** BOUNDARY CONDITIONS
** 
** Name: LowerLeftPin_BC Type: Displacement/Rotation
*Boundary
LowerLeftPinHole, 2, 2
LowerLeftPinHole, 3, 3
** Name: LowerRightPin_BC Type: Displacement/Rotation
*Boundary
LowerRightPinHole, 2, 2
LowerRightPinHole, 3, 3
** ----------------------------------------------------------------
** 
** STEP: LoadStep
** 
*Step, name=LoadStep, nlgeom=NO
*Static
1., 1., 1e-06, 1.
** 
** LOADS
** 
** Name: VerticalLoad_20kN   Type: Concentrated force
*Cload
UpperRP, 2, 20000.
** 
** OUTPUT REQUESTS
** 
*Restart, write, frequency=0
** 
** FIELD OUTPUT: F-Output-1
** 
*Output, field
*Node Output
RF, U
*Element Output, directions=YES
ENER, S
** 
** HISTORY OUTPUT: H-Output-1
** 
*Output, history, variable=PRESELECT
*End Step
