*Heading
** Job name: airbeam_FEA Model name: airbeam
** Generated by: Abaqus/CAE 2025
*Preprint, echo=NO, model=NO, history=NO, contact=NO
**
** PARTS
**
*Part, name=PART-1
*Node
      1,           0.,           0.
      2,  0.798165977,           0.
      3,   1.59633005,           0.
      4,      2.39449,           0.
      5,   3.19266009,           0.
      6,   3.99081993,           0.
      7,   4.78899002,           0.
      8,    5.5871501,           0.
      9,   6.38532019,           0.
     10,   7.18347979,           0.
     11,   7.98164988,           0.
     12,   8.77980995,           0.
     13,   9.57798004,           0.
     14,   10.3760996,           0.
     15,   11.1743002,           0.
     16,   11.9723997,           0.
     17,   12.7706003,           0.
     18,      13.5688,           0.
     19,   14.3669004,           0.
     20,   15.1651001,           0.
** ... 4050 like lines cut
*Element, type=CPE4
   1,    1,    2,  112,  111
   2,    2,    3,  113,  112
   3,    3,    4,  114,  113
   4,    4,    5,  115,  114
   5,    5,    6,  116,  115
   6,    6,    7,  117,  116
   7,    7,    8,  118,  117
   8,    8,    9,  119,  118
   9,    9,   10,  120,  119
  10,   10,   11,  121,  120
  11,   11,   12,  122,  121
  12,   12,   13,  123,  122
  13,   13,   14,  124,  123
  14,   14,   15,  125,  124
  15,   15,   16,  126,  125
  16,   16,   17,  127,  126
  17,   17,   18,  128,  127
  18,   18,   19,  129,  128
  19,   19,   20,  130,  129
  20,   20,   21,  131,  130
** ... 3904 like lines cut
*Elset, elset=DESIGN_ELEM
  110,  111,  112,  113,  114,  115,  116,  117,  118,  119,  120,  121,  122,  123,  124,  125
  126,  127,  128,  129,  130,  131,  132,  133,  134,  135,  136,  137,  138,  139,  140,  141
  142,  143,  144,  145,  146,  147,  148,  149,  150,  151,  152,  153,  154,  155,  156,  157
  158,  159,  160,  161,  162,  163,  164,  165,  166,  167,  168,  169,  170,  171,  172,  173
  174,  175,  176,  177,  178,  179,  180,  181,  182,  183,  184,  185,  186,  187,  188,  189
  190,  191,  192,  193,  194,  195,  196,  197,  198,  199,  200,  201,  202,  203,  204,  205
  206,  207,  208,  209,  210,  211,  212,  213,  214,  215,  216,  217,  219,  220,  221,  222
  223,  224,  225,  226,  227,  228,  229,  230,  231,  232,  233,  234,  235,  236,  237,  238
  239,  240,  241,  242,  243,  244,  245,  246,  247,  248,  249,  250,  251,  252,  253,  254
  255,  256,  257,  258,  259,  260,  261,  262,  263,  264,  265,  266,  267,  268,  269,  270
  271,  272,  273,  274,  275,  276,  277,  278,  279,  280,  281,  282,  283,  284,  285,  286
  287,  288,  289,  290,  291,  292,  293,  294,  295,  296,  297,  298,  299,  300,  301,  302
  303,  304,  305,  306,  307,  308,  309,  310,  311,  312,  313,  314,  315,  316,  317,  318
  319,  320,  321,  322,  323,  324,  325,  326,  328,  329,  330,  331,  332,  333,  334,  335
  336,  337,  338,  339,  340,  341,  342,  343,  344,  345,  346,  347,  348,  349,  350,  351
  352,  353,  354,  355,  356,  357,  358,  359,  360,  361,  362,  363,  364,  365,  366,  367
  368,  369,  370,  371,  372,  373,  374,  375,  376,  377,  378,  379,  380,  381,  382,  383
  384,  385,  386,  387,  388,  389,  390,  391,  392,  393,  394,  395,  396,  397,  398,  399
  400,  401,  402,  403,  404,  405,  406,  407,  408,  409,  410,  411,  412,  413,  414,  415
  416,  417,  418,  419,  420,  421,  422,  423,  424,  425,  426,  427,  428,  429,  430,  431
** ... 210 like lines cut
*Elset, elset=P1
    1,    2,    3,    4,    5,    6,    7,    8,    9,   10,   11,   12,   13,   14,   15,   16
   17,   18,   19,   20,   21,   22,   23,   24,   25,   26,   27,   28,   29,   30,   31,   32
   33,   34,   35,   36,   37,   38,   39,   40,   41,   42,   43,   44,   45,   46,   47,   48
   49,   50,   51,   52,   53,   54,   55,   56,   57,   58,   59,   60,   61,   62,   63,   64
   65,   66,   67,   68,   69,   70,   71,   72,   73,   74,   75,   76,   77,   78,   79,   80
   81,   82,   83,   84,   85,   86,   87,   88,   89,   90,   91,   92,   93,   94,   95,   96
   97,   98,   99,  100,  101,  102,  103,  104,  105,  106,  107,  108,  109,  218,  327,  436
  545,  654,  763,  872,  981, 1090, 1199, 1308, 1417, 1526, 1635, 1744, 1853, 1962, 2071, 2180
 2289, 2398, 2507, 2616, 2725, 2834, 2943, 3052, 3161, 3270, 3379, 3488, 3597, 3706, 3815, 3816
 3817, 3818, 3819, 3820, 3821, 3822, 3823, 3824, 3825, 3826, 3827, 3828, 3829, 3830, 3831, 3832
 3833, 3834, 3835, 3836, 3837, 3838, 3839, 3840, 3841, 3842, 3843, 3844, 3845, 3846, 3847, 3848
 3849, 3850, 3851, 3852, 3853, 3854, 3855, 3856, 3857, 3858, 3859, 3860, 3861, 3862, 3863, 3864
 3865, 3866, 3867, 3868, 3869, 3870, 3871, 3872, 3873, 3874, 3875, 3876, 3877, 3878, 3879, 3880
 3881, 3882, 3883, 3884, 3885, 3886, 3887, 3888, 3889, 3890, 3891, 3892, 3893, 3894, 3895, 3896
 3897, 3898, 3899, 3900, 3901, 3902, 3903, 3904, 3905, 3906, 3907, 3908, 3909, 3910, 3911, 3912
 3913, 3914, 3915, 3916, 3917, 3918, 3919, 3920, 3921, 3922, 3923, 3924
** Section: Section-1-P1
*Solid Section, elset=P1, material=MAT11
1.,
** Section: Section-2-DESIGN_ELEM
*Solid Section, elset=DESIGN_ELEM, material=MAT11
1.,
*End Part
**  
**
** ASSEMBLY
**
*Assembly, name=Assembly
**  
*Instance, name=PART-1-1, part=PART-1
*End Instance
**  
*Nset, nset=FORCE1, instance=PART-1-1
 109, 110
*Elset, elset=FROZEN_ELEMENTS, instance=PART-1-1
    1,    2,    3,    4,    5,    6,    7,    8,    9,   10,   11,   12,   13,   14,   15,   16
   17,   18,   19,   20,   21,   22,   23,   24,   25,   26,   27,   28,   29,   30,   31,   32
   33,   34,   35,   36,   37,   38,   39,   40,   41,   42,   43,   44,   45,   46,   47,   48
   49,   50,   51,   52,   53,   54,   55,   56,   57,   58,   59,   60,   61,   62,   63,   64
   65,   66,   67,   68,   69,   70,   71,   72,   73,   74,   75,   76,   77,   78,   79,   80
   81,   82,   83,   84,   85,   86,   87,   88,   89,   90,   91,   92,   93,   94,   95,   96
   97,   98,   99,  100,  101,  102,  103,  104,  105,  106,  107,  108,  109,  218,  327,  436
  545,  654,  763,  872,  981, 1090, 1199, 1308, 1417, 1526, 1635, 1744, 1853, 1962, 2071, 2180
 2289, 2398, 2507, 2616, 2725, 2834, 2943, 3052, 3161, 3270, 3379, 3488, 3597, 3706, 3815, 3816
 3817, 3818, 3819, 3820, 3821, 3822, 3823, 3824, 3825, 3826, 3827, 3828, 3829, 3830, 3831, 3832
 3833, 3834, 3835, 3836, 3837, 3838, 3839, 3840, 3841, 3842, 3843, 3844, 3845, 3846, 3847, 3848
 3849, 3850, 3851, 3852, 3853, 3854, 3855, 3856, 3857, 3858, 3859, 3860, 3861, 3862, 3863, 3864
 3865, 3866, 3867, 3868, 3869, 3870, 3871, 3872, 3873, 3874, 3875, 3876, 3877, 3878, 3879, 3880
 3881, 3882, 3883, 3884, 3885, 3886, 3887, 3888, 3889, 3890, 3891, 3892, 3893, 3894, 3895, 3896
 3897, 3898, 3899, 3900, 3901, 3902, 3903, 3904, 3905, 3906, 3907, 3908, 3909, 3910, 3911, 3912
 3913, 3914, 3915, 3916, 3917, 3918, 3919, 3920, 3921, 3922, 3923, 3924
*Nset, nset=SPC11, instance=PART-1-1
 3961,
*Nset, nset=SPC13, instance=PART-1-1, generate
    1,  3851,   110
*End Assembly
** 
** MATERIALS
** 
**  mat11
** 
*Material, name=MAT11
*Elastic
210000., 0.3
** ----------------------------------------------------------------
** 
** STEP: Step-1
** 
*Step, name=Step-1, nlgeom=NO, perturbation
*Static
** 
** BOUNDARY CONDITIONS
** 
** Name: Disp-BC-1 Type: Displacement/Rotation
*Boundary
SPC11, 1, 1
** Name: Disp-BC-2 Type: Displacement/Rotation
*Boundary
SPC11, 2, 2
** Name: Disp-BC-3 Type: Displacement/Rotation
*Boundary
SPC13, 1, 1
** 
** LOADS
** 
** Name: CFORCE-1   Type: Concentrated force
*Cload
FORCE1, 2, 39.9089
** 
** OUTPUT REQUESTS
** 
** 
** FIELD OUTPUT: F-Output-1
** 
*Output, field, variable=PRESELECT
** 
** HISTORY OUTPUT: H-Output-1
** 
*Output, history, variable=PRESELECT
*End Step
